src/powersystems/files/ieee39_diagnose.txt
Network features
This pandapower network includes the following parameter tables:
   - bus (39 elements)
   - load (21 elements)
   - gen (9 elements)
   - ext_grid (1 element)
   - line (35 elements)
   - trafo (11 elements)
   - poly_cost (10 elements)
 and the following results tables:
   - res_bus (39 elements)
   - res_line (35 elements)
   - res_trafo (11 elements)
   - res_ext_grid (1 element)
   - res_load (21 elements)
   - res_gen (9 elements)
Bus data:
       vm_pu  va_degree        p_mw      q_mvar
0   1.039384 -13.536602   97.600000   44.200000
1   1.048494  -9.785267    0.000000    0.000000
2   1.030708 -12.276384  322.000000    2.400000
3   1.004460 -12.626734  500.000000  184.000000
4   1.006006 -11.192339    0.000000    0.000000
5   1.008226 -10.408330    0.000000    0.000000
6   0.998397 -12.755626  233.800000   84.000000
7   0.997872 -13.335844  522.000000  176.600000
8   1.038332 -14.178442    6.500000  -66.600000
9   1.017843  -8.170875    0.000000    0.000000
10  1.013386  -8.936966    0.000000    0.000000
11  1.000815  -8.998824    8.530000   88.000000
12  1.014923  -8.929927    0.000000    0.000000
13  1.012319 -10.715295    0.000000    0.000000
14  1.016185 -11.345399  320.000000  153.000000
15  1.032520 -10.033348  329.000000   32.300000
16  1.034237 -11.116436    0.000000    0.000000
17  1.031573 -11.986168  158.000000   30.000000
18  1.050107  -5.410073    0.000000    0.000000
19  0.991011  -6.821178  680.000000  103.000000
20  1.032319  -7.628746  274.000000  115.000000
21  1.050143  -3.183120    0.000000    0.000000
22  1.045145  -3.381276  247.500000   84.600000
23  1.038001  -9.913759  308.600000  -92.200000
24  1.057683  -8.369235  224.000000   47.200000
25  1.052561  -9.438770  139.000000   17.000000
26  1.038345 -11.362152  281.000000   75.500000
27  1.050374  -5.928359  206.000000   27.600000
28  1.050115  -3.169874  283.500000   26.900000
29  1.049900  -7.370475 -250.000000 -161.761648
30  0.982000   0.000000 -668.671126 -216.974486
31  0.984100  -0.188437 -650.000000 -206.964855
32  0.997200  -0.193174 -632.000000 -108.292786
33  1.012300  -1.631119 -508.000000 -166.688369
34  1.049400   1.776507 -650.000000 -210.661384
35  1.063600   4.468437 -560.000000 -100.164792
36  1.027500  -1.582899 -540.000000    1.369447
37  1.026500   3.892818 -830.000000  -21.732729
38  1.030000 -14.535256  104.000000  171.532641
Default range of p_mw: 6.5 1104.0
Default range of q_mvar: -92.2 250.0

Load data:
    name  bus     p_mw  q_mvar  const_z_percent  const_i_percent  sn_mva  scaling  in_service  type  controllable
0   None    0    97.60    44.2              0.0              0.0     NaN      1.0        True  None         False
1   None    2   322.00     2.4              0.0              0.0     NaN      1.0        True  None         False
2   None    3   500.00   184.0              0.0              0.0     NaN      1.0        True  None         False
3   None    6   233.80    84.0              0.0              0.0     NaN      1.0        True  None         False
4   None    7   522.00   176.6              0.0              0.0     NaN      1.0        True  None         False
5   None    8     6.50   -66.6              0.0              0.0     NaN      1.0        True  None         False
6   None   11     8.53    88.0              0.0              0.0     NaN      1.0        True  None         False
7   None   14   320.00   153.0              0.0              0.0     NaN      1.0        True  None         False
8   None   15   329.00    32.3              0.0              0.0     NaN      1.0        True  None         False
9   None   17   158.00    30.0              0.0              0.0     NaN      1.0        True  None         False
10  None   19   680.00   103.0              0.0              0.0     NaN      1.0        True  None         False
11  None   20   274.00   115.0              0.0              0.0     NaN      1.0        True  None         False
12  None   22   247.50    84.6              0.0              0.0     NaN      1.0        True  None         False
13  None   23   308.60   -92.2              0.0              0.0     NaN      1.0        True  None         False
14  None   24   224.00    47.2              0.0              0.0     NaN      1.0        True  None         False
15  None   25   139.00    17.0              0.0              0.0     NaN      1.0        True  None         False
16  None   26   281.00    75.5              0.0              0.0     NaN      1.0        True  None         False
17  None   27   206.00    27.6              0.0              0.0     NaN      1.0        True  None         False
18  None   28   283.50    26.9              0.0              0.0     NaN      1.0        True  None         False
19  None   30     9.20     4.6              0.0              0.0     NaN      1.0        True  None         False
20  None   38  1104.00   250.0              0.0              0.0     NaN      1.0        True  None         False